/*--------------------------------*- C++ -*----------------------------------*\
  =========                 |
  \\      /  F ield         | OpenFOAM: The Open Source CFD Toolbox
   \\    /   O peration     | Website:  https://openfoam.org
    \\  /    A nd           | Version:  7
     \\/     M anipulation  |
\*---------------------------------------------------------------------------*/
FoamFile
{
    version     2.0;
    format      ascii;
    class       polyBoundaryMesh;
    location    "constant/polyMesh";
    object      boundary;
}
// * * * * * * * * * * * * * * * * * * * * * * * * * * * * * * * * * * * * * //

6
(
    atmosphere
    {
        type            patch;
        nFaces          1920;
        startFace       2950428;
    }
    inlet
    {
        type            patch;
        nFaces          800;
        startFace       2952348;
    }
    outlet
    {
        type            patch;
        nFaces          800;
        startFace       2953148;
    }
    bottom
    {
        type            symmetry;
        inGroups        List<word> 1(symmetry);
        nFaces          7567;
        startFace       2953948;
    }
    side
    {
        type            symmetry;
        inGroups        List<word> 1(symmetry);
        nFaces          26505;
        startFace       2961515;
    }
    hull
    {
        type            wall;
        inGroups        List<word> 1(wall);
        nFaces          163172;
        startFace       2988020;
    }
)

// ************************************************************************* //
