/*--------------------------------*- C++ -*----------------------------------*\
  =========                 |
  \\      /  F ield         | OpenFOAM: The Open Source CFD Toolbox
   \\    /   O peration     | Website:  https://openfoam.org
    \\  /    A nd           | Version:  7
     \\/     M anipulation  |
\*---------------------------------------------------------------------------*/
FoamFile
{
    version     2.0;
    format      ascii;
    class       extendedFeatureEdgeMesh;
    location    "constant/extendedFeatureEdgeMesh";
    object      IWP.extendedFeatureEdgeMesh;
}
// * * * * * * * * * * * * * * * * * * * * * * * * * * * * * * * * * * * * * //

// points

3949
(
(-1 -0.7527599 -2)
(-1 -0.6824544 -2)
(-0.9999951 -0.3217002 -1.999995)
(-0.9999995 -0.24531 -1.999951)
(-0.9999994 0.2453109 -1.999938)
(-0.9999951 0.3217003 -1.999995)
(-1 0.6824544 -2)
(-1 0.7527599 -2)
(-0.7527599 -1 -2)
(-0.7527599 1 -2)
(-0.6824543 -1 -2)
(-0.6824544 1 -2)
(-0.3217003 -0.9999951 -1.999994)
(-0.3217001 0.9999956 -1.999996)
(-0.2597372 -0.2260332 -2.000018)
(-0.2610607 0.2236782 -2.000005)
(-0.2457113 -0.9999999 -1.999971)
(-0.2236783 -0.2610607 -2.000005)
(-0.2248846 0.2606477 -2.000009)
(-0.2463602 1 -2)
(0.2260343 0.2597382 -2.000008)
(0.2457118 -0.9999999 -1.999964)
(0.2597382 -0.2260343 -2.000008)
(0.2610607 0.2236783 -2.000005)
(0.2463602 1 -2)
(0.3216777 -0.999995 -1.999996)
(0.321701 0.9999902 -1.99999)
(0.6824544 -1 -2)
(0.6824544 1 -2)
(0.7527599 -1 -2)
(0.7527599 1 -2)
(1 -0.7527599 -2)
(1 -0.6824543 -2)
(0.9999902 -0.3217008 -1.999992)
(0.9999999 -0.2457108 -1.999979)
(0.9999999 0.2457113 -1.999971)
(0.9999956 0.3216777 -1.999995)
(1 0.6824544 -2)
(1 0.7527599 -2)
(-1 -1 -1.752643)
(-1 1 -1.752643)
(1 -1 -1.752643)
(1 1 -1.752643)
(-1 -1 -1.682644)
(-1 1 -1.682644)
(1 -1 -1.682644)
(1 1 -1.682644)
(-1 -1 -1.31822)
(-1 1 -1.31822)
(1 -1 -1.31822)
(1 1 -1.31822)
(-1 -1 -1.247085)
(-1.000004 -0.257862 -1.229111)
(-1.000004 0.257862 -1.229111)
(-1 1 -1.247085)
(-0.2569393 -1.000009 -1.230455)
(-0.2578608 1.000005 -1.229088)
(0.2569397 -1.000005 -1.230456)
(0.2578608 1.000004 -1.229088)
(1 -1 -1.247085)
(1.000004 -0.2569211 -1.230459)
(1.000004 0.2569211 -1.230459)
(1 1 -1.247085)
(-1.000005 -0.7587711 -0.7502288)
(-1.000006 0.7577431 -0.7513911)
(-0.7573984 -1.000004 -0.7510919)
(-0.7577431 1.000005 -0.7513911)
(0.7564408 -1.000005 -0.7523541)
(0.758771 1.000005 -0.7502287)
(1.000005 -0.7564408 -0.752354)
(1.000004 0.7573984 -0.7510919)
(-1 -1 -0.7543502)
(-1 1 -0.7543502)
(1 -1 -0.7543502)
(1 1 -0.7543502)
(-1 -1 -0.6813384)
(-1 1 -0.6813384)
(1 -1 -0.6813384)
(1 1 -0.6813384)
(-1 -1 -0.3209828)
(-1 1 -0.3209828)
(1 -1 -0.3209828)
(1 1 -0.3209828)
(-0.2261431 -1.000007 -0.2596733)
(1.000007 0.2261762 -0.2596965)
(-1 -1 -0.2460544)
(-1 1 -0.2460544)
(-0.2605543 -1.000009 -0.2245326)
(0.9999701 -0.9999999 -0.2454062)
(0.9999629 0.9999999 -0.2453948)
(1.000011 0.2605159 -0.2245322)
(0.2605543 1.000009 0.2245326)
(1.000021 0.2614766 0.2232567)
(-0.9999629 -0.9999999 0.2453948)
(-1 1 0.2460544)
(0.2261431 1.000007 0.2596733)
(1 -1 0.2460544)
(1.000006 0.2261763 0.2596966)
(1 1 0.2460544)
(-1 -1 0.3209828)
(-1 1 0.3209828)
(1 -1 0.3209828)
(1 1 0.3209828)
(-1 -1 0.6813384)
(-1 1 0.6813384)
(1 -1 0.6813384)
(1 1 0.6813384)
(-1 -1 0.7543502)
(-1.000004 -0.757401 0.7510947)
(-1.000005 0.7564405 0.7523607)
(-1 1 0.7543502)
(-0.758771 -1.000005 0.7502287)
(-0.7564408 1.000005 0.752354)
(0.7577431 -1.000005 0.7513911)
(0.7573984 1.000004 0.7510919)
(1 -1 0.7543502)
(1.000006 -0.7577395 0.7513873)
(1.000005 0.7587642 0.7502286)
(1 1 0.7543502)
(-1.000005 -0.2573011 1.229783)
(-1.000004 0.2573012 1.229783)
(-0.2578608 -1.000005 1.229088)
(-0.2569397 1.000005 1.230456)
(0.257861 -1.000003 1.229088)
(0.2569397 1.000005 1.230456)
(1.000004 -0.2575613 1.229758)
(1.000011 0.2575607 1.229757)
(-1 -1 1.247085)
(-1 1 1.247085)
(1 -1 1.247085)
(1 1 1.247085)
(-1 -1 1.31822)
(-1 1 1.31822)
(1 -1 1.31822)
(1 1 1.31822)
(-1 -1 1.682644)
(-1 1 1.682644)
(1 -1 1.682644)
(1 1 1.682644)
(-1 -1 1.752643)
(-1 1 1.752643)
(1 -1 1.752643)
(1 1 1.752643)
(-0.9999999 -0.2457113 1.999971)
(-0.9999999 0.2457105 1.999984)
(-0.2457118 0.9999999 1.999964)
(0.2457113 0.9999999 1.999971)
(-1 -0.7527599 2)
(-1 -0.6824544 2)
(-0.9999961 -0.3216777 1.999995)
(-0.9999913 0.3216783 1.999991)
(-1 0.6824543 2)
(-1 0.7527599 2)
(-0.7527599 -1 2)
(-0.7527599 1 2)
(-0.6824544 -1 2)
(-0.6824544 1 2)
(-0.3217009 -0.9999902 1.99999)
(-0.3216777 0.999995 1.999996)
(-0.2610607 -0.2236783 2.000005)
(-0.2597382 0.2260343 2.000008)
(-0.2463602 -1 2)
(-0.2260343 -0.2597382 2.000008)
(0.224883 -0.2606466 2.000021)
(0.2236783 0.2610607 2.000005)
(0.2463602 -1 2)
(0.261061 -0.2236785 2.000002)
(0.2597372 0.2260332 2.000018)
(0.3217001 -0.9999956 1.999996)
(0.3216777 0.9999956 1.999995)
(0.6824544 -1 2)
(0.6824543 1 2)
(0.7527599 -1 2)
(0.7527599 1 2)
(1 -0.7527599 2)
(1 -0.6824544 2)
(0.9999951 -0.3217003 1.999995)
(1 -0.2463602 2)
(1 0.2463602 2)
(0.9999945 0.3217002 1.999995)
(1 0.6824544 2)
(1 0.7527599 2)
(-0.7637888 0.2525276 -1.99999)
(-0.2534798 -0.9999958 -1.765127)
(-0.9999969 0.7628624 -0.2518601)
(-0.7628278 -0.9999999 -0.2518365)
(0.7628625 0.9999986 -0.2518599)
(0.9999996 0.7628745 -0.2518697)
(0.7628745 -0.9999986 0.2518698)
(-0.9999961 -0.2535058 1.76516)
(-0.2535059 0.9999957 1.76516)
(0.2533924 -0.9999996 1.764987)
(0.9999909 -0.2534804 1.765127)
(0.2525291 0.7637879 1.999979)
(-0.9564498 -0.749894 -2)
(-0.9999999 -0.749918 -1.956634)
(-0.9661016 -0.6806442 -2)
(-1 -0.680675 -1.966387)
(-0.9445848 -0.3251249 -2)
(-0.9999998 -0.3250701 -1.945053)
(-0.93364 -0.251251 -1.999999)
(-0.9370495 0.2508291 -1.999998)
(-0.9476398 0.3245941 -2)
(-0.9999998 0.3250701 -1.945053)
(-0.9661024 0.6806442 -2)
(-1 0.680675 -1.966387)
(-0.95645 0.7498941 -2)
(-0.9999999 0.749918 -1.956634)
(-0.9322036 -0.6748165 -2)
(-0.9322033 0.6748164 -2)
(-0.8426668 -0.7308974 -1.999999)
(-0.8930966 -0.6608955 -1.999998)
(-0.8804179 -0.3387439 -1.999999)
(-0.8710197 -0.2661732 -2)
(-0.8737826 0.2657662 -2)
(-0.8861514 0.3372137 -1.999999)
(-0.8933742 0.6609285 -1.999998)
(-0.841796 0.7308737 -1.999999)
(-0.8051529 -0.6404964 -1.999999)
(-0.8055975 0.6404978 -1.999997)
(-0.832272 -0.3563198 -2)
(-0.8305084 -0.2707196 -2)
(-0.8305085 0.2707196 -2)
(-0.8325875 0.3562523 -2)
(-0.7966101 -0.7331654 -2)
(-0.7740352 -0.3630742 -1.999998)
(-0.7966102 -0.267949 -2)
(-0.7966102 0.267949 -2)
(-0.7966103 0.3616349 -2)
(-0.7966102 0.7331653 -2)
(-0.762712 -0.7479847 -2)
(-0.7627119 -0.6390889 -2)
(-0.7637149 -0.2524675 -1.999991)
(-0.7627119 0.3620506 -2)
(-0.7627119 0.6390889 -2)
(-0.7627118 0.7479848 -2)
(-0.750128 -0.9999999 -1.957586)
(-0.7501046 -0.9574734 -2)
(-0.7310807 -0.8402923 -2)
(-0.7331653 -0.7966101 -2)
(-0.7479848 -0.7627119 -2)
(-0.7288136 -0.6472102 -2)
(-0.7294568 -0.3555403 -1.999994)
(-0.7382095 -0.2203391 -2)
(-0.7310832 -0.1864405 -2)
(-0.7327315 -0.1438408 -2)
(-0.7515264 -0.03016189 -2)
(-0.7517117 0.03108355 -2)
(-0.7328078 0.1443659 -2)
(-0.7310832 0.1864407 -2)
(-0.7382095 0.220339 -2)
(-0.7294062 0.3555095 -1.999993)
(-0.7288138 0.6472101 -2)
(-0.7479847 0.762712 -2)
(-0.7331654 0.7966101 -2)
(-0.7308974 0.8426668 -1.999999)
(-0.749894 0.9564498 -2)
(-0.749918 0.9999999 -1.956634)
(-0.6971181 -0.6624773 -1.999977)
(-0.6877958 -0.328367 -2.000001)
(-0.6865185 0.3274109 -2.000001)
(-0.6971873 0.662421 -1.999995)
(-0.6787627 -0.9999998 -1.948252)
(-0.6786852 -0.9477252 -2)
(-0.6610885 -0.8938298 -2)
(-0.6624212 -0.6971875 -1.999996)
(-0.6568923 -0.2932846 -2.000004)
(-0.6611524 -0.1064757 -2)
(-0.669925 -0.08474573 -2)
(-0.6782959 -0.05084794 -2)
(-0.682887 -0.003617715 -2)
(-0.6757116 0.06644171 -1.999999)
(-0.6611062 0.1064184 -2)
(-0.6558915 0.2915369 -2.000005)
(-0.6624792 0.6971204 -1.999994)
(-0.660963 0.8932545 -1.999998)
(-0.6748165 0.9322036 -2)
(-0.6806442 0.9661016 -2)
(-0.680675 1 -1.966387)
(-0.6404811 -0.8033346 -2)
(-0.6390888 -0.7627118 -2)
(-0.6472101 -0.7288139 -2)
(-0.6420556 -0.2542372 -2)
(-0.6384057 -0.2203389 -2)
(-0.6436865 -0.1803914 -2)
(-0.6430018 0.1841903 -2)
(-0.6384057 0.2203392 -2)
(-0.6420556 0.2542374 -2)
(-0.6472102 0.7288136 -2)
(-0.6390889 0.7627119 -2)
(-0.6404979 0.8055978 -1.999998)
(-0.3616349 -0.7966102 -2)
(-0.3562073 -0.8327159 -2)
(-0.3620505 -0.7627119 -2)
(-0.3555284 -0.7294107 -1.999993)
(-0.3626011 -0.2203391 -2)
(-0.3585377 -0.2598362 -2.000002)
(-0.3575626 -0.1732315 -2.000002)
(-0.3626011 0.2203392 -2)
(-0.3569181 0.1706956 -2.000001)
(-0.3591342 0.2576351 -2.000003)
(-0.3620506 0.7627119 -2)
(-0.35554 0.7294565 -1.999993)
(-0.3616349 0.7966102 -2)
(-0.3563198 0.8322719 -2)
(-0.324224 -0.9518169 -2)
(-0.3246105 -0.9999999 -1.949426)
(-0.3374026 -0.8844335 -1.999999)
(-0.3294466 -0.688914 -2.000001)
(-0.3449827 -0.2881355 -2)
(-0.3217021 -0.3217308 -1.999996)
(-0.3356432 -0.1090304 -1.999999)
(-0.3232097 -0.03783091 -2)
(-0.3226449 0.03093579 -2)
(-0.3334727 0.1008767 -2)
(-0.3449827 0.2881356 -2)
(-0.3217304 0.3217017 -1.999999)
(-0.327411 0.6865186 -2.000001)
(-0.3387439 0.8804179 -1.999999)
(-0.3251249 0.9445847 -2)
(-0.3250701 0.9999998 -1.945053)
(-0.2925769 -0.6563588 -2.000005)
(-0.2881356 -0.3449827 -2)
(-0.2881355 0.3449827 -2)
(-0.2915368 0.6558914 -2.000005)
(-0.2534547 -0.9231673 -2)
(-0.2705083 -0.8432029 -2)
(-0.267949 -0.7966102 -2)
(-0.2525337 -0.7638755 -1.999995)
(-0.2542374 -0.6420556 -2)
(-0.2576345 -0.3591339 -2.000006)
(-0.2704084 -0.1864406 -2)
(-0.2687128 -0.1429897 -2)
(-0.2527682 -0.07467061 -1.999999)
(-0.2542436 0.08108556 -2)
(-0.2681444 0.139071 -2)
(-0.2704084 0.1864406 -2)
(-0.2587581 0.3589709 -2.000003)
(-0.2542374 0.6420556 -2)
(-0.2521208 0.763226 -1.999998)
(-0.267949 0.7966102 -2)
(-0.2707196 0.8305084 -2)
(-0.2661732 0.8710197 -2)
(-0.2512511 0.9336401 -1.999998)
(-0.2478869 -0.9661018 -2)
(-0.220339 -0.7382095 -2)
(-0.2203392 -0.6384057 -2)
(-0.2203392 -0.3626011 -2)
(-0.2467493 -0.01694936 -2)
(-0.2470839 0.02723929 -2)
(-0.2203391 0.3626011 -2)
(-0.2203392 0.6384057 -2)
(-0.220339 0.7382095 -2)
(-0.2512318 0.9999978 -1.933746)
(-0.1864407 -0.7310832 -2)
(-0.1841903 -0.6430018 -2)
(-0.1703485 -0.3568839 -2.000001)
(-0.1864406 -0.2704084 -2)
(-0.1864408 0.2704084 -2)
(-0.1706958 0.3569181 -2.000001)
(-0.1841903 0.6430018 -2)
(-0.1864406 0.7310832 -2)
(-0.1443659 -0.7328078 -2)
(-0.139071 -0.2681444 -2)
(-0.1390709 0.2681444 -2)
(-0.1443659 0.7328078 -2)
(-0.1064184 -0.6611062 -2)
(-0.1008767 -0.3334727 -2)
(-0.1008769 0.3334727 -2)
(-0.1064807 0.6610819 -2)
(-0.03108355 -0.7517117 -2)
(-0.06644172 -0.6757117 -1.999999)
(-0.07230211 -0.2522394 -1.999999)
(-0.08108556 0.2542436 -2)
(-0.08474579 0.669925 -2)
(-0.03108354 0.7517118 -2)
(-0.03093579 -0.3226449 -2)
(-0.02723929 0.2470839 -2)
(-0.03093565 0.3226449 -2)
(-0.05084736 0.6782961 -2)
(0.003617715 -0.682887 -2)
(0.003192528 -0.246057 -2)
(0.003618011 0.682887 -2)
(0.03016189 -0.7515264 -2)
(0.0378309 -0.3232097 -2)
(0.01694928 0.2467493 -2)
(0.03783065 0.3232096 -2)
(0.03016189 0.7515264 -2)
(0.06801589 -0.6749363 -2)
(0.07467073 -0.2527682 -1.999999)
(0.07436979 0.2526794 -1.999999)
(0.05084719 0.6782961 -2)
(0.1438408 -0.7327315 -2)
(0.1090304 -0.3356432 -1.999999)
(0.1090303 0.3356432 -1.999999)
(0.08474573 0.669925 -2)
(0.1441898 0.7326724 -2)
(0.1062261 -0.6612191 -2)
(0.1429897 -0.2687128 -2)
(0.1429897 0.2687128 -2)
(0.1064757 0.6611524 -2)
(0.1803914 -0.6436865 -2)
(0.1732314 -0.3575627 -2.000002)
(0.1737819 0.3576353 -2.000002)
(0.1803909 0.6436867 -2)
(0.1864405 -0.7310832 -2)
(0.1864406 -0.2704084 -2)
(0.1864407 0.2704084 -2)
(0.1864406 0.7310832 -2)
(0.2203391 -0.7382095 -2)
(0.2203389 -0.6384057 -2)
(0.2203391 -0.3626011 -2)
(0.2247395 -0.2602845 -2.000005)
(0.220339 0.3626011 -2)
(0.220339 0.6384057 -2)
(0.2203391 0.7382095 -2)
(0.2478869 -0.9661018 -2)
(0.2534547 -0.9231673 -2)
(0.2524676 -0.7637148 -1.999991)
(0.2542372 -0.6420556 -2)
(0.2586734 -0.3587498 -2.000004)
(0.2467493 -0.01694928 -2)
(0.2527682 -0.07467079 -1.999999)
(0.2470839 0.02723929 -2)
(0.2542436 0.08108556 -2)
(0.2598352 0.3585373 -2.000006)
(0.2542373 0.6420556 -2)
(0.2525275 0.7637888 -1.999991)
(0.2512511 0.9336398 -1.999999)
(0.2512318 0.9999986 -1.933746)
(0.2705083 -0.8432029 -2)
(0.267949 -0.7966102 -2)
(0.2932846 -0.6568923 -2.000004)
(0.2881354 -0.3449827 -2)
(0.2704084 -0.1864407 -2)
(0.2687128 -0.1429897 -2)
(0.2681444 0.1390709 -2)
(0.2704084 0.1864408 -2)
(0.2881354 0.3449828 -2)
(0.2922146 0.6563752 -2.000001)
(0.267949 0.7966102 -2)
(0.2707196 0.8305085 -2)
(0.2661732 0.8710196 -2)
(0.3299004 -0.6893833 -2.000001)
(0.3216983 -0.3217354 -1.999997)
(0.3217354 0.3216984 -1.999996)
(0.3274106 0.686519 -2.000004)
(0.3242013 -0.9999999 -1.952101)
(0.3240527 -0.952925 -2)
(0.3374026 -0.8844335 -1.999999)
(0.3562073 -0.8327159 -2)
(0.3555475 -0.729483 -1.999993)
(0.3449828 -0.2881354 -2)
(0.3585376 -0.259836 -2.000003)
(0.3575626 -0.1732315 -2.000002)
(0.3356432 -0.1090303 -1.999999)
(0.3232096 -0.03783065 -2)
(0.3226449 0.03093565 -2)
(0.3334727 0.1008769 -2)
(0.3569181 0.1706958 -2.000001)
(0.3591343 0.257635 -2.000003)
(0.3449827 0.2881354 -2)
(0.355509 0.7294067 -1.999997)
(0.3563198 0.832272 -2)
(0.3387439 0.8804179 -1.999999)
(0.3251249 0.9445847 -2)
(0.3245481 0.9999998 -1.948083)
(0.3616349 -0.7966101 -2)
(0.3620505 -0.7627118 -2)
(0.3626011 -0.220339 -2)
(0.3626011 0.2203391 -2)
(0.3620506 0.7627119 -2)
(0.3616349 0.7966103 -2)
(0.6404334 -0.8032575 -1.999999)
(0.6608731 -0.8930693 -2)
(0.6390888 -0.7627119 -2)
(0.6472101 -0.7288138 -2)
(0.6624116 -0.6972021 -1.999997)
(0.6420556 -0.2542373 -2)
(0.6568924 -0.2932846 -2.000005)
(0.6384057 -0.220339 -2)
(0.6436867 -0.1803909 -2)
(0.6611524 -0.1064756 -2)
(0.6430018 0.1841903 -2)
(0.6611062 0.1064184 -2)
(0.6384057 0.2203392 -2)
(0.6420556 0.2542374 -2)
(0.6558914 0.2915368 -2.000004)
(0.6472102 0.7288136 -2)
(0.662554 0.6969359 -1.999988)
(0.6390889 0.7627119 -2)
(0.6404978 0.8055975 -1.999997)
(0.6609285 0.8933746 -1.999997)
(0.6787628 -0.9999998 -1.948252)
(0.6786853 -0.9477253 -2)
(0.6969344 -0.6625529 -1.999978)
(0.688914 -0.3294466 -2.000001)
(0.669925 -0.08474573 -2)
(0.6782961 -0.05084719 -2)
(0.682887 -0.003618011 -2)
(0.6757117 0.06644172 -1.999999)
(0.6880689 0.3289848 -2.000001)
(0.6971992 0.6624098 -1.99998)
(0.6748164 0.9322033 -2)
(0.6806442 0.9661024 -2)
(0.680675 1 -1.966387)
(0.7288137 -0.6472101 -2)
(0.7294115 -0.3555278 -1.999998)
(0.7294826 0.3555468 -1.999993)
(0.7288138 0.6472101 -2)
(0.750128 -0.9999999 -1.957586)
(0.7501046 -0.9574734 -2)
(0.731173 -0.8396931 -1.999999)
(0.7331654 -0.7966102 -2)
(0.7479848 -0.7627118 -2)
(0.7627119 -0.7479848 -2)
(0.7627118 -0.6390888 -2)
(0.7627119 -0.3620505 -2)
(0.7638751 -0.2525345 -1.999989)
(0.7382095 -0.2203391 -2)
(0.7310832 -0.1864406 -2)
(0.7326724 -0.1441898 -2)
(0.7515264 -0.03016189 -2)
(0.7517118 0.03108354 -2)
(0.7328078 0.1443659 -2)
(0.7310832 0.1864406 -2)
(0.7382095 0.220339 -2)
(0.763226 0.2521208 -1.999998)
(0.7627118 0.3620505 -2)
(0.7627119 0.6390888 -2)
(0.7627118 0.7479848 -2)
(0.7479848 0.7627119 -2)
(0.7331653 0.7966102 -2)
(0.7308737 0.841796 -1.999999)
(0.7498941 0.95645 -2)
(0.749918 0.9999999 -1.956634)
(0.7966101 -0.7331653 -2)
(0.8032662 -0.6403803 -1.999998)
(0.7966102 -0.3616349 -2)
(0.7966102 -0.267949 -2)
(0.7966102 0.267949 -2)
(0.7966101 0.3616349 -2)
(0.8034435 0.6404255 -1.999999)
(0.7966102 0.7331654 -2)
(0.8402923 -0.7310807 -2)
(0.8323988 -0.3562792 -2)
(0.8432029 -0.2705083 -2)
(0.8432029 0.2705083 -2)
(0.8327159 0.3562073 -2)
(0.8396931 0.731173 -1.999999)
(0.8940898 -0.6612156 -2)
(0.8807533 -0.3383383 -1.999999)
(0.8844334 0.3374026 -1.999999)
(0.9574734 -0.7501046 -2)
(0.9232734 -0.2534557 -2)
(0.9231674 0.2534547 -2)
(0.8932444 0.6609468 -2)
(0.9574734 0.7501046 -2)
(0.9477252 -0.6786852 -2)
(0.9489797 -0.3246598 -2)
(0.952925 0.3240527 -2)
(0.9477253 0.6786853 -2)
(0.9661018 -0.2478869 -2)
(0.9661018 0.2478869 -2)
(0.9999999 -0.750128 -1.957586)
(0.9999998 -0.6787627 -1.948252)
(0.9999999 -0.3241827 -1.952235)
(0.9999999 0.3242013 -1.952101)
(0.9999998 0.6787628 -1.948252)
(0.9999999 0.750128 -1.957586)
(-1 -0.6749543 -1.932773)
(-1.000001 -0.253728 -1.922538)
(-1.000001 0.2537279 -1.922538)
(-1 0.6749544 -1.932773)
(-0.6749543 1 -1.932773)
(-0.2534046 -1 -1.923358)
(0.2534046 -1 -1.923358)
(0.6749544 1 -1.932773)
(1 -0.253378 -1.92353)
(1 0.253378 -1.92353)
(-0.9999988 -0.7313572 -1.844838)
(-1.000004 -0.6607212 -1.891822)
(-0.999999 -0.3387274 -1.880439)
(-0.999999 0.3387274 -1.880439)
(-0.9999992 0.6610753 -1.893823)
(-0.9999994 0.7310231 -1.84311)
(-0.7311392 0.9999989 -1.843409)
(-0.6609445 -1 -1.893106)
(-0.6607544 1.000003 -1.891904)
(-0.3373293 -0.9999988 -1.884645)
(-0.3387274 0.999999 -1.880439)
(-0.2659923 1 -1.871895)
(0.2659924 1 -1.871894)
(0.3373294 -0.9999989 -1.884645)
(0.3387274 0.999999 -1.880439)
(0.6611427 -1 -1.893861)
(0.6610753 0.9999987 -1.893823)
(0.7310231 0.9999994 -1.84311)
(1 -0.6609445 -1.893106)
(0.9999989 -0.3373293 -1.884645)
(0.9999989 0.3373294 -1.884645)
(1 0.6614329 -1.894376)
(-1 -0.2706692 -1.840703)
(-1 0.2706692 -1.840703)
(-0.9999977 0.6408418 -1.807268)
(-0.7312908 -0.9999987 -1.84102)
(-0.64068 -0.9999995 -1.804746)
(-0.2703496 -1 -1.844639)
(0.2703495 -1 -1.844639)
(0.6406795 -0.9999989 -1.80473)
(0.6408418 0.9999977 -1.807268)
(0.7312095 -0.9999993 -1.841645)
(0.9999992 -0.7312908 -1.84102)
(0.9999992 -0.64068 -1.804746)
(1 -0.2703496 -1.844639)
(1 0.2703495 -1.844639)
(1 0.7310637 -1.840652)
(-1 -0.3561755 -1.833067)
(-1 0.3561755 -1.833067)
(-0.3561051 -1 -1.83335)
(-0.3561765 1 -1.833072)
(-0.2706695 1 -1.831933)
(0.2706695 1 -1.831933)
(0.3561051 -1 -1.83335)
(0.3561765 1 -1.833071)
(1 -0.3561091 -1.833343)
(1 0.3561091 -1.833343)
(0.9999981 0.6406301 -1.80461)
(-1 -0.732842 -1.798319)
(-1 -0.6400075 -1.79832)
(-0.9999993 -0.3632134 -1.773967)
(-1 -0.2683197 -1.798319)
(-1 0.2683197 -1.798319)
(-0.9999993 0.3632134 -1.773967)
(-1 0.732842 -1.798319)
(-0.732842 -1 -1.798319)
(-0.732842 1 -1.798319)
(-0.6400075 1 -1.79832)
(-0.3614673 -1 -1.798319)
(-0.3632134 0.9999995 -1.773967)
(-0.2683197 -1 -1.798319)
(-0.2683197 1 -1.798319)
(0.2683197 -1 -1.798319)
(0.2683197 1 -1.798319)
(0.3614672 -1 -1.798319)
(0.3632134 0.9999993 -1.773967)
(0.732842 -1 -1.798319)
(0.732842 1 -1.798319)
(1 -0.732842 -1.798319)
(1 -0.3614673 -1.798319)
(1 -0.2683197 -1.798319)
(1 0.2683197 -1.798319)
(1 0.3614672 -1.798319)
(1 0.732842 -1.798319)
(-1 -0.7464981 -1.764706)
(-1 -0.638891 -1.764706)
(-0.9999992 -0.2533247 -1.764896)
(-0.9999973 0.2534034 -1.765067)
(-1 0.638891 -1.764706)
(-1 0.7464981 -1.764706)
(-0.7464982 -1 -1.764706)
(-0.7464981 1 -1.764706)
(-0.638891 -1 -1.764706)
(-0.638891 1 -1.764706)
(-0.362204 -1 -1.764706)
(-0.2533247 0.9999993 -1.764896)
(0.2535135 -0.999998 -1.765204)
(0.2532991 1 -1.764901)
(0.362204 -1 -1.764706)
(0.638891 -1 -1.764706)
(0.638891 1 -1.764706)
(0.7464982 -1 -1.764706)
(0.7464981 1 -1.764706)
(1 -0.7464982 -1.764706)
(1 -0.638891 -1.764706)
(1 -0.362204 -1.764706)
(0.9999988 -0.2534238 -1.765032)
(0.9999982 0.2535135 -1.765204)
(1 0.362204 -1.764706)
(1 0.638891 -1.764706)
(1 0.7464982 -1.764706)
(-0.9999999 -0.9564527 -1.750033)
(-0.9564527 -0.9999999 -1.750033)
(-0.9999956 -0.835047 -1.731148)
(-1 -0.7966102 -1.733347)
(-1 -0.7627122 -1.74808)
(-1 -0.6463986 -1.731092)
(-1 -0.3561163 -1.730909)
(-1 -0.220339 -1.738346)
(-0.9999997 -0.1864017 -1.731321)
(-0.9999924 -0.1480786 -1.732873)
(-0.9999999 -0.03076206 -1.751425)
(-0.9999999 0.03196444 -1.751599)
(-0.9999996 0.1455652 -1.733061)
(-0.9999997 0.1864012 -1.731341)
(-1 0.2203391 -1.738346)
(-1 0.3561164 -1.730909)
(-1 0.6463986 -1.731093)
(-1 0.7627119 -1.74808)
(-1 0.7966104 -1.733347)
(-0.9999978 0.8333701 -1.731183)
(-1 0.9541098 -1.749669)
(-0.9541098 1 -1.749669)
(-0.8349708 -0.9999976 -1.731131)
(-0.8333018 0.9999986 -1.731177)
(-0.7966102 -1 -1.733347)
(-0.762712 -1 -1.74808)
(-0.7968076 0.9999958 -1.733487)
(-0.7627122 1 -1.74808)
(-0.6463985 -1 -1.731093)
(-0.6463986 1 -1.731092)
(-0.3561352 -1 -1.730951)
(-0.3561001 1 -1.730857)
(-0.2203389 -1 -1.738346)
(-0.2203391 1 -1.738346)
(-0.1863924 -0.9999997 -1.73133)
(-0.1863679 0.9999996 -1.731332)
(-0.1464089 0.9999996 -1.732853)
(-0.03196444 0.9999999 -1.751599)
(-0.03076206 -0.9999999 -1.751425)
(-0.1492229 -0.9999963 -1.732662)
(0.03196444 -0.9999999 -1.751599)
(0.03076206 0.9999999 -1.751425)
(0.1473458 0.9999922 -1.732997)
(0.1448246 -0.9999996 -1.733078)
(0.1863586 -0.9999997 -1.731338)
(0.2203389 -1 -1.738346)
(0.1864309 0.9999998 -1.731332)
(0.220339 1 -1.738346)
(0.3561351 -1 -1.730951)
(0.3561001 1 -1.730857)
(0.6463987 -1 -1.731092)
(0.6463986 1 -1.731093)
(0.7627118 -1 -1.74808)
(0.762712 1 -1.74808)
(0.7966104 -1 -1.733347)
(0.7974892 0.9999962 -1.733388)
(0.8332094 -0.9999987 -1.731211)
(0.9541098 -1 -1.749669)
(0.8353737 0.9999967 -1.731144)
(0.9564527 0.9999999 -1.750033)
(1 -0.9541098 -1.749669)
(0.9999974 -0.8332235 -1.731161)
(1 -0.7966102 -1.733347)
(1 -0.762712 -1.74808)
(1 -0.6463985 -1.731093)
(1 -0.3561221 -1.730902)
(1 -0.220339 -1.738346)
(0.9999997 -0.1863815 -1.731322)
(0.9999995 -0.145568 -1.732893)
(0.9999999 -0.03196444 -1.751599)
(0.9999999 0.03076206 -1.751425)
(0.9999996 0.1440114 -1.73317)
(0.9999997 0.1863797 -1.731342)
(1 0.2203389 -1.738346)
(1 0.3561221 -1.730902)
(1 0.6463987 -1.731092)
(1 0.7627119 -1.74808)
(0.9999975 0.7973255 -1.733313)
(0.9999999 0.9564527 -1.750033)
(0.9999973 0.8352054 -1.731174)
(-0.9999936 -0.6614479 -1.698196)
(-1.000001 -0.3302305 -1.689938)
(-1.000001 0.3302305 -1.689938)
(-0.9999973 0.6615093 -1.698101)
(-0.6614923 -0.9999937 -1.698103)
(-0.6615131 0.9999944 -1.698102)
(-0.3302362 -1.000005 -1.68997)
(-0.3278369 1.000004 -1.687088)
(0.3302366 -1.000001 -1.68997)
(0.3278369 1.000004 -1.687088)
(0.6614318 -0.9999936 -1.698217)
(0.6615096 0.999999 -1.698102)
(0.9999927 -0.6614922 -1.698103)
(1.000001 -0.3277973 -1.687065)
(1.000001 0.3277973 -1.687065)
(0.9999943 0.6614903 -1.698127)
(-0.9999995 -0.9486784 -1.678666)
(-0.9486784 -0.9999995 -1.678666)
(-1 -0.9044394 -1.663927)
(-1 -0.6948563 -1.663788)
(-1.000006 -0.2954498 -1.658546)
(-1 -0.05084746 -1.678104)
(-0.9999964 -0.09490007 -1.664561)
(-0.9999995 -0.003703528 -1.683122)
(-1 0.05084746 -1.678103)
(-0.9999993 0.09487472 -1.664686)
(-1.000008 0.2945133 -1.657822)
(-1 0.6948545 -1.663792)
(-1 0.9322038 -1.674228)
(-1 0.9045222 -1.663984)
(-1 0.9661018 -1.680679)
(-0.9661018 1 -1.680679)
(-0.9322038 1 -1.674228)
(-0.9044659 -1 -1.663937)
(-0.9043116 1 -1.663939)
(-0.6948622 -1 -1.663785)
(-0.6948677 1 -1.663784)
(-0.2954305 -1.000002 -1.658503)
(-0.293115 1.000007 -1.657143)
(-0.0934936 -0.9999969 -1.665142)
(-0.05084767 -1 -1.678104)
(-0.05084746 1 -1.678103)
(-0.09431258 0.9999991 -1.66483)
(-0.003703589 -0.9999995 -1.683122)
(0.003703528 0.9999995 -1.683122)
(0.05084823 -1 -1.678103)
(0.05084746 1 -1.678104)
(0.09445783 -0.9999992 -1.664996)
(0.09433918 0.9999965 -1.664698)
(0.2945298 -1.000007 -1.657807)
(0.293996 1.000005 -1.657788)
(0.6948481 -1 -1.663796)
(0.6948625 1 -1.663785)
(0.9045477 -1 -1.663993)
(0.9322037 -1 -1.674228)
(0.9322034 1 -1.674228)
(0.9043918 1 -1.663917)
(0.9661018 -1 -1.680679)
(0.9661017 1 -1.680679)
(1 -0.9661018 -1.680679)
(1 -0.9322037 -1.674228)
(1 -0.9043419 -1.663949)
(1 -0.6948544 -1.663792)
(1.000006 -0.2931739 -1.657149)
(0.9999991 -0.09392862 -1.665127)
(1 -0.05084823 -1.678103)
(0.9999995 0.003703588 -1.683122)
(1 0.05084767 -1.678104)
(0.9999967 0.09287984 -1.6653)
(1.000005 0.2940188 -1.657767)
(1 0.6948745 -1.663777)
(1 0.904421 -1.663927)
(1 0.9322034 -1.674228)
(1 0.9661017 -1.680679)
(-1.000001 -0.8028589 -1.640017)
(-1 -0.7627121 -1.638585)
(-1 -0.7288133 -1.647291)
(-1 -0.2542369 -1.641806)
(-0.9999956 -0.2136155 -1.637438)
(-0.9999999 -0.1371356 -1.654727)
(-1.000003 0.181311 -1.643842)
(-1 0.2203391 -1.63781)
(-1 0.2542372 -1.641806)
(-1 0.7288135 -1.647291)
(-1 0.7627119 -1.638585)
(-1 0.7966099 -1.639284)
(-1.000001 0.8500477 -1.651318)
(-0.8028589 -1 -1.640017)
(-0.8500477 1.000001 -1.651318)
(-0.7966099 1 -1.639284)
(-0.7627119 -1 -1.638585)
(-0.7627119 1 -1.638585)
(-0.7288134 -1 -1.647291)
(-0.7288135 1 -1.647291)
(-0.2542374 -1 -1.641806)
(-0.2542372 1 -1.641806)
(-0.2136157 -0.9999956 -1.637438)
(-0.2203391 1 -1.63781)
(-0.1813111 1.000003 -1.643842)
(-0.1348862 -1 -1.655337)
(0.1371344 0.9999999 -1.654728)
(0.1864409 -1 -1.642411)
(0.2136155 0.9999956 -1.637438)
(0.2203391 -1 -1.63781)
(0.2542372 -1 -1.641806)
(0.2542369 1 -1.641806)
(0.7288135 -1 -1.647291)
(0.7288133 1 -1.647291)
(0.7627119 -1 -1.638585)
(0.7627121 1 -1.638585)
(0.7966098 -1 -1.639284)
(0.8028589 1.000001 -1.640017)
(0.8500482 -1.000002 -1.651318)
(1.000002 -0.8500482 -1.651318)
(1 -0.7966098 -1.639284)
(1 -0.7627119 -1.638585)
(1 -0.7288135 -1.647291)
(1 -0.2542372 -1.641806)
(1 -0.2203391 -1.63781)
(1 -0.1864409 -1.642411)
(1 0.1348855 -1.655337)
(0.9999956 0.2136157 -1.637438)
(1 0.2542374 -1.641806)
(1 0.7288134 -1.647291)
(1 0.7627119 -1.638585)
(1 0.8028589 -1.640017)
(-0.1701204 0.4237288 -1.462185)
(-0.1519967 0.3741172 -1.460871)
(-0.9999989 -0.8083723 -1.361314)
(-1.000005 -0.7605812 -1.362942)
(-0.9999893 -0.2534195 -1.360765)
(-1 -0.2203389 -1.363646)
(-0.9999947 -0.1877532 -1.360641)
(-0.9999942 0.1877077 -1.360641)
(-1 0.2203391 -1.363646)
(-0.9999883 0.2533763 -1.360776)
(-1.000004 0.7596624 -1.362794)
(-1.000001 0.8003438 -1.362476)
(-0.8881513 -0.6316744 -1.361697)
(-0.8638425 -0.6234534 -1.407111)
(-0.7604707 -1.000005 -1.36295)
(-0.8088197 -0.9999995 -1.361286)
(-0.8003269 1.000001 -1.362468)
(-0.759815 1.000004 -1.362767)
(-0.220339 -1 -1.363646)
(-0.2533748 -0.9999978 -1.360775)
(-0.253418 0.9999976 -1.360764)
(-0.2203387 1 -1.363646)
(-0.1876828 -0.999995 -1.360632)
(-0.187371 0.9999929 -1.36059)
(0.220339 -1 -1.363646)
(0.1877532 -0.9999947 -1.360641)
(0.1877077 0.9999942 -1.360641)
(0.2203389 1 -1.363646)
(0.2534062 -0.9999877 -1.360766)
(0.2535487 0.9999977 -1.360722)
(0.6316744 -0.8881513 -1.361697)
(0.6234534 -0.8638425 -1.407111)
(0.7992243 -1.000001 -1.362569)
(0.7597626 -1.000005 -1.362761)
(0.7604136 1.000004 -1.362962)
(0.8084089 0.999999 -1.361298)
(1.000004 -0.7597598 -1.362781)
(1.000001 -0.7991675 -1.362565)
(1 -0.2203386 -1.363646)
(0.9999976 -0.2534535 -1.360759)
(0.9999947 -0.1877188 -1.360637)
(1 0.2203389 -1.363646)
(0.9999931 0.1873735 -1.360596)
(0.9999981 0.2535454 -1.36071)
(0.9999996 0.8088564 -1.361271)
(1.000005 0.7604707 -1.36295)
(-1.000001 -0.9414289 -1.327639)
(-0.9999993 -0.8849332 -1.338006)
(-1 -0.7288134 -1.353427)
(-1.000003 -0.6906813 -1.331574)
(-0.999993 -0.3187245 -1.323498)
(-1 -0.2881352 -1.344692)
(-0.9999987 -0.1121699 -1.337218)
(-0.9999934 -0.05770328 -1.326963)
(-0.9999986 0.05752204 -1.326832)
(-0.9999989 0.1301437 -1.342088)
(-1 0.2881356 -1.344692)
(-0.9999869 0.3183614 -1.324223)
(-1.000003 0.6906813 -1.331574)
(-1 0.7288133 -1.353427)
(-1.000004 0.8738047 -1.341304)
(-1.000001 0.9411454 -1.327605)
(-0.8849338 -0.9999993 -1.338006)
(-0.9407368 -1 -1.327735)
(-0.9411721 1.000001 -1.327598)
(-0.8738047 1.000003 -1.341304)
(-0.7288136 -1 -1.353427)
(-0.7288141 1 -1.353427)
(-0.6918645 -1.000003 -1.332491)
(-0.6910569 1.000004 -1.331953)
(-0.3247825 -0.1861176 -1.367581)
(-0.3643232 -0.1861794 -1.330436)
(-0.2881356 -1 -1.344692)
(-0.3183605 -0.999994 -1.324222)
(-0.3187245 0.999993 -1.323498)
(-0.2881352 1 -1.344692)
(-0.1301877 -0.9999986 -1.342212)
(-0.1316513 0.9999986 -1.342467)
(-0.05862067 -0.9999997 -1.326902)
(-0.0585266 0.9999985 -1.327215)
(0.0549772 0.9999968 -1.326192)
(0.1090054 0.9999989 -1.336294)
(0.1301437 -0.9999989 -1.342088)
(0.05861712 -0.9999976 -1.327084)
(0.2881362 -1 -1.344691)
(0.2881359 1 -1.344691)
(0.3187982 -0.9999894 -1.323652)
(0.3180304 0.9999929 -1.324055)
(0.7288134 -1 -1.353427)
(0.6915106 -1.000002 -1.332156)
(0.6906851 1.000003 -1.331586)
(0.7288133 1 -1.353427)
(0.8551896 -1.000003 -1.347222)
(0.8849332 0.9999993 -1.338006)
(0.8983044 -1 -1.335156)
(0.9397932 -1.000001 -1.327802)
(0.9414548 1.000001 -1.327633)
(1 -0.8983044 -1.335156)
(1.000001 -0.9398255 -1.327794)
(1.000002 -0.8551896 -1.347222)
(1 -0.7288136 -1.353427)
(1.000003 -0.6918465 -1.332485)
(1 -0.2881362 -1.344691)
(0.9999915 -0.3174282 -1.324728)
(0.9999991 -0.1339144 -1.343072)
(0.9999979 -0.05864725 -1.327154)
(0.9999976 0.1263112 -1.341125)
(1 0.05864118 -1.326948)
(1 0.2881361 -1.344691)
(0.9999874 0.3183678 -1.324146)
(1 0.7288141 -1.353427)
(1.000003 0.6918467 -1.332485)
(0.9999993 0.8849338 -1.338006)
(1 0.9407668 -1.327727)
(-1 -0.9661019 -1.321014)
(-0.9661016 -1 -1.321014)
(-1.000002 -0.658066 -1.295812)
(-1 -0.3411468 -1.294118)
(-1 -0.01694893 -1.318898)
(-1 0.01694859 -1.318898)
(-1 0.3411469 -1.294118)
(-1.000002 0.6580659 -1.295812)
(-1 0.9661022 -1.321014)
(-0.9661022 1 -1.321014)
(-0.6586074 -1.000002 -1.296676)
(-0.658062 1.000002 -1.29579)
(-0.3411469 -1 -1.294118)
(-0.3411468 1 -1.294118)
(-0.01694928 -1 -1.318898)
(-0.01694896 1 -1.318898)
(0.01694961 -1 -1.318898)
(0.01694825 1 -1.318898)
(0.341147 -1 -1.294117)
(0.3411469 1 -1.294118)
(0.6586073 -1 -1.296676)
(0.658062 1.000002 -1.29579)
(0.9661019 -1 -1.321014)
(0.9661019 1 -1.321014)
(1 -0.9661019 -1.321014)
(1.000001 -0.6586196 -1.296679)
(1 -0.341147 -1.294118)
(1 -0.01694927 -1.318898)
(1 0.01694928 -1.318898)
(1 0.341147 -1.294117)
(1.000001 0.6586196 -1.296679)
(1 0.9661016 -1.321014)
(-1 -0.8305086 -1.270578)
(-1.000003 -0.8752932 -1.263299)
(-1.000002 -0.7949761 -1.267395)
(-1 -0.6437189 -1.260504)
(-1.000002 -0.3579867 -1.262391)
(-1 -0.1864407 -1.270283)
(-1.000002 -0.2209739 -1.261248)
(-1 -0.1525422 -1.269155)
(-1.000001 -0.1112779 -1.260325)
(-1 0.1525424 -1.269155)
(-1.000001 0.1135247 -1.260874)
(-1 0.1864406 -1.270283)
(-1.000002 0.2208233 -1.261353)
(-1.000001 0.3579867 -1.262391)
(-1 0.643719 -1.260504)
(-1 0.8305085 -1.270578)
(-1.000003 0.7945176 -1.267186)
(-1.000007 0.8720817 -1.264004)
(-0.8761652 -1.000005 -1.263037)
(-0.8305084 -1 -1.270578)
(-0.8305085 1 -1.270578)
(-0.8713404 1.000007 -1.264256)
(-0.7955569 -1.000002 -1.267474)
(-0.7966102 1 -1.267647)
(-0.7635223 0.9999981 -1.252429)